cases/transmission/generated_cases/hourly_case_20.m
%% MATPOWER Case Format : Version 2
function mpc = case2383wp
mpc.version = '2';
%%-----  Power Flow Data  -----%%
%% system MVA base
mpc.baseMVA = 100;
%% bus data
%    bus_i    type    Pd    Qd    Gs    Bs    area    Vm    Va    baseKV    zone    Vmax    Vmin
mpc.bus = [
	1	1	0.0	0.0	0.0	0.0	1	1.096026410488346	9.851605630913724	220.0	1	1.11	0.95				
	2	1	0.0	0.0	0.0	0.0	1	1.0871291325958503	10.917199641400687	220.0	1	1.11	0.95				
	3	1	0.0	0.0	0.0	0.0	1	1.0858548912893773	8.418714933065521	220.0	1	1.11	0.95				
	4	1	0.0	0.0	0.0	0.0	1	1.0797235494187363	10.734412597193185	220.0	1	1.11	0.95				
	5	1	0.0	0.0	0.0	0.0	1	1.0718172154429877	8.27851664217661	220.0	1	1.11	0.95				
	6	1	0.0	0.0	0.0	0.0	1	1.0328180702638008	9.087540208683505	400.0	1	1.05	0.95				
	7	1	0.0	0.0	0.0	0.0	1	1.0675942847103894	7.962037760081072	220.0	1	1.11	0.95				
	8	1	0.0	0.0	0.0	0.0	1	1.0376538783558198	6.780467466418134	400.0	1	1.05	0.95				
	9	1	0.0	0.0	0.0	0.0	1	1.044349584271009	8.579651044249543	400.0	1	1.05	0.95				
	10	2	8.8056	6.480000000000001	0.0	0.0	1	1.1082311	12.736407694453927	220.0	1	1.11	0.95				
	11	1	0.0	0.0	0.0	0.0	1	1.0848995299633688	11.009656747017477	220.0	1	1.11	0.95				
	12	1	0.0	0.0	0.0	0.0	1	1.0698208586380162	8.995406985022242	220.0	1	1.11	0.95				
	13	1	0.0	0.0	0.0	0.0	1	1.0721824090358265	8.04629342308873	220.0	1	1.11	0.95				
	14	1	0.0	0.0	0.0	0.0	1	1.0733816143758523	10.344514417798816	220.0	1	1.11	0.95				
	15	1	0.0	0.0	0.0	0.0	1	1.0276432193735765	5.91861037384773	400.0	1	1.05	0.95				
	16	2	39.51360000000001	72.00000000000001	0.0	0.0	1	1.0974008	10.097851709767461	220.0	1	1.11	0.95				
	17	2	55.44000000000001	108.0	0.0	0.0	1	1.0910267	11.36201011172323	220.0	1	1.11	0.95				
	18	3	110.16000000000001	252.00000000000006	0.0	0.0	1	1.0337129	0.0	400.0	1	1.05	0.95				
	19	1	0.0	0.0	0.0	0.0	1	1.070383122240148	8.216895826326098	220.0	1	1.11	0.95				
	20	1	0.0	0.0	0.0	0.0	1	1.0311081197204364	3.0751745944728475	400.0	1	1.05	0.95				
	21	1	0.0	0.0	0.0	0.0	1	1.067277601562603	7.715920249214226	220.0	1	1.11	0.95				
	22	1	0.0	0.0	0.0	0.0	1	1.0835906780600348	12.735210506672539	220.0	1	1.11	0.95				
	23	1	0.0	0.0	0.0	0.0	1	1.064469453651645	11.461789407666128	220.0	2	1.11	0.95				
	24	1	0.0	0.0	0.0	0.0	1	1.0555184288222852	14.100936549908758	220.0	2	1.11	0.95				
	25	1	0.0	0.0	0.0	0.0	1	1.0577666771418603	15.38784972948583	220.0	2	1.11	0.95				
	26	1	0.0	0.0	0.0	0.0	1	1.0546915544127866	10.279042488771779	220.0	2	1.11	0.95				
	27	1	0.0	0.0	0.0	0.0	1	1.067773057187356	12.599236678023122	220.0	2	1.11	0.95				
	28	1	0.0	0.0	0.0	0.0	1	1.0677395092430013	12.606168066450534	220.0	2	1.11	0.95				
	29	2	18.705600000000004	43.2	0.0	0.0	1	1.0967104	11.780011363387585	220.0	2	1.11	0.95				
	30	2	18.705600000000004	43.2	0.0	0.0	1	1.0967037	11.779343856774053	220.0	2	1.11	0.95				
	31	2	15.105600000000003	36.00000000000001	0.0	0.0	1	1.0214422	14.372826026846766	400.0	2	1.05	0.95				
	32	1	0.0	0.0	0.0	0.0	1	1.0214574613674772	14.350029649556344	400.0	2	1.05	0.95				
	33	1	0.0	0.0	0.0	0.0	1	1.0628683324308488	12.160358973771055	220.0	2	1.11	0.95				
	34	1	0.0	0.0	0.0	0.0	1	1.044787074252832	13.564465100139042	400.0	2	1.05	0.95				
	35	1	0.0	0.0	0.0	0.0	1	1.0448091539470443	13.560514073288822	400.0	2	1.05	0.95				
	36	1	0.0	0.0	0.0	0.0	1	1.00665002228577	12.40603751940459	400.0	2	1.05	0.95				
	37	1	0.0	0.0	0.0	0.0	1	1.064284663095391	11.835025020841096	220.0	2	1.11	0.95				
	38	1	0.0	0.0	0.0	0.0	1	1.0642852873427853	11.837276447903962	220.0	2	1.11	0.95				
	39	1	0.0	0.0	0.0	0.0	1	1.0180829083992116	15.155742892190208	400.0	2	1.05	0.95				
	40	1	0.0	0.0	0.0	0.0	1	1.0180612687830455	15.162496831166777	400.0	2	1.05	0.95				
	41	2	8.632800000000001	21.6	0.0	0.0	1	1.0608776	16.83481537980233	220.0	2	1.11	0.95				
	42	2	8.632800000000001	21.6	0.0	0.0	1	1.0608614	16.824308270609464	220.0	2	1.11	0.95				
	43	2	17.265600000000003	43.2	0.0	0.0	1	1.0229141	16.81893710187133	400.0	2	1.05	0.95				
	44	2	17.265600000000003	43.2	0.0	0.0	1	1.0229414	16.807801151383416	400.0	2	1.05	0.95				
	45	2	115.08480000000002	54.0	0.0	0.0	1	1.0792177	11.222289317605133	220.0	2	1.11	0.95				
	46	1	0.0	0.0	0.0	0.0	1	1.0792333102289848	11.22417169630138	220.0	2	1.11	0.95				
	47	1	0.0	0.0	0.0	0.0	1	1.0623610676928839	12.751919579892425	220.0	2	1.11	0.95				
	48	1	0.0	0.0	0.0	0.0	1	1.0809838312962368	11.214900562399896	220.0	2	1.11	0.95				
	49	1	0.0	0.0	0.0	0.0	1	1.0809949316477063	11.213925151954431	220.0	2	1.11	0.95				
	50	1	0.0	0.0	0.0	0.0	1	1.0310130004183446	14.610926808718617	400.0	2	1.05	0.95				
	51	1	0.0	0.0	0.0	0.0	1	1.0310978849341403	14.60110272191855	400.0	2	1.05	0.95				
	52	1	0.0	0.0	0.0	0.0	1	1.055032172202796	13.92730036977025	220.0	2	1.11	0.95				
	53	1	0.0	0.0	0.0	0.0	1	1.0570134096300916	13.958262543708068	220.0	2	1.11	0.95				
	54	1	0.0	0.0	0.0	0.0	1	1.0579363886957631	15.428875900434797	220.0	2	1.11	0.95				
	55	1	0.0	0.0	0.0	0.0	1	1.0689005957152666	12.92359333434703	220.0	2	1.11	0.95				
	56	1	0.0	0.0	0.0	0.0	1	1.073684266509148	10.660416299015928	220.0	3	1.11	0.95				
	57	1	16.5456	7.891200000000001	0.0	0.0	1	1.0805967449854645	18.56651202912695	220.0	3	1.11	0.95				
	58	1	15.825600000000001	4.1688	0.0	0.0	1	1.0807503434793178	18.566538141682063	220.0	3	1.11	0.95				
	59	1	0.0	0.0	0.0	0.0	1	1.106437910657391	25.96191223817618	220.0	3	1.11	0.95				
	60	1	0.0	0.0	0.0	0.0	1	1.1047677332635462	19.661956103675042	220.0	3	1.11	0.95				
	61	1	0.0	0.0	0.0	0.0	1	1.1086673661739994	28.003510430986335	220.0	3	1.11	0.95				
	62	1	0.0	0.0	0.0	0.0	1	1.1086472287919054	28.00769123103047	220.0	3	1.11	0.95				
	63	2	26.9064	37.9368	0.0	0.0	1	1.11	25.71202843638322	220.0	3	1.11	0.95				
	64	2	25.4664	39.830400000000004	0.0	0.0	1	1.1092626	25.12767115360977	220.0	3	1.11	0.95				
	65	1	9.640800000000002	1.4544000000000001	0.0	0.0	1	1.1047928039266675	24.103985163505797	220.0	3	1.11	0.95				
	66	1	0.0	0.0	0.0	0.0	1	1.1048788638278007	16.14664404238056	220.0	3	1.11	0.95				
	67	2	43.48800000000001	66.312	0.0	0.0	1	1.05	15.918158575964407	400.0	3	1.05	0.95				
	68	1	0.0	0.0	0.0	0.0	1	1.1031934361265883	17.462009991802063	220.0	3	1.11	0.95				
	69	1	0.0	0.0	0.0	0.0	1	1.1073215765791793	23.757506323116086	220.0	3	1.11	0.95				
	70	1	0.0	0.0	0.0	0.0	1	1.0763528958008781	11.818255003804847	220.0	3	1.11	0.95				
	71	1	0.0	0.0	0.0	0.0	1	1.099330135865723	21.531353143477617	220.0	3	1.11	0.95				
	72	1	0.0	0.0	0.0	0.0	1	1.099330135865723	21.531353143477617	220.0	3	1.11	0.95				
	73	1	0.0	0.0	0.0	0.0	1	1.0772148251214322	11.878783907972362	220.0	3	1.11	0.95				
	74	1	0.0	0.0	0.0	0.0	1	1.0770053329330647	11.17525154103086	220.0	3	1.11	0.95				
	75	1	0.0	0.0	0.0	0.0	1	1.0266419718009407	5.536510543990368	400.0	3	1.05	0.95				
	76	1	0.0	0.0	0.0	0.0	1	1.026608345942598	5.54095302651476	400.0	3	1.05	0.95				
	77	1	0.0	0.0	0.0	0.0	1	1.0993150317751386	21.36288255955692	220.0	3	1.11	0.95				
	78	1	0.0	0.0	0.0	0.0	1	1.0982047586853734	18.79935025436315	220.0	3	1.11	0.95				
	79	1	0.0	0.0	0.0	0.0	1	1.0931485610045832	21.43336040842894	220.0	3	1.11	0.95				
	80	1	0.0	0.0	0.0	0.0	1	1.0810439711313533	18.60350811562492	220.0	3	1.11	0.95				
	81	1	0.0	0.0	0.0	0.0	1	1.0810668133546575	18.60372263880612	220.0	3	1.11	0.95				
	82	1	0.0	0.0	0.0	0.0	1	1.105063501855543	27.2028763972733	220.0	3	1.11	0.95				
	83	2	11.512800000000002	16.5384	0.0	0.0	1	1.1089547	23.61753743573352	220.0	3	1.11	0.95				
	84	2	11.3688	16.0344	0.0	0.0	1	1.1090726	23.61874896083912	220.0	3	1.11	0.95				
	85	2	7.192800000000001	12.247200000000005	0.0	0.0	1	1.1017195	20.437505285678252	220.0	3	1.11	0.95				
	86	2	7.192800000000001	11.995200000000002	0.0	0.0	1	1.1016369	20.432599841625564	220.0	3	1.11	0.95				
	87	1	7.9848	11.6784	0.0	0.0	1	1.0818785161373325	17.801197376112288	220.0	3	1.11	0.95				
	88	1	0.0	0.0	0.0	0.0	1	1.0818852315899905	17.810565695682158	220.0	3	1.11	0.95				
	89	1	0.0	0.0	0.0	0.0	1	1.1019895616544328	25.069234054299997	220.0	3	1.11	0.95				
	90	1	0.0	0.0	0.0	0.0	1	1.1050957234102077	22.625799258906778	220.0	3	1.11	0.95				
	91	1	0.0	0.0	0.0	0.0	1	1.1042267054896797	24.68830580762155	220.0	3	1.11	0.95				
	92	1	0.0	0.0	0.0	0.0	1	1.0226836952882004	11.623085326886107	400.0	3	1.05	0.95				
	93	2	7.192800000000001	11.800800000000002	0.0	0.0	1	1.1056302	24.098380334714633	220.0	3	1.11	0.95				
	94	1	0.0	0.0	0.0	0.0	1	1.1055904059569024	24.095693801668805	220.0	3	1.11	0.95				
	95	2	4.960800000000001	5.868000000000001	0.0	0.0	1	1.1075265	25.517159802326447	220.0	3	1.11	0.95				
	96	1	0.0	0.0	0.0	0.0	1	1.1075307297941006	25.513902246210666	220.0	3	1.11	0.95				
	97	2	6.2568	3.7872000000000003	0.0	0.0	1	1.0967425	23.86999642553229	220.0	3	1.11	0.95				
	98	1	0.0	0.0	0.0	0.0	1	1.0227203861522363	14.730490544959455	400.0	3	1.05	0.95				
	99	1	0.0	0.0	0.0	0.0	1	1.0228061220368179	14.729545171611125	400.0	3	1.05	0.95				
	100	1	0.0	0.0	0.0	0.0	1	1.0289053979790612	10.689075087819393	400.0	3	1.05	0.95				
	101	1	0.0	0.0	0.0	0.0	1	1.0289468755776334	10.664610531431478	400.0	3	1.05	0.95				
	102	1	0.0	0.0	0.0	0.0	1	1.1038438357659195	25.348203622164046	220.0	3	1.11	0.95				
	103	2	13.024800000000003	17.107200000000002	0.0	0.0	1	1.1067084	21.290204708922676	220.0	3	1.11	0.95				
	104	2	24.2496	33.199200000000005	0.0	0.0	1	1.106757	21.30414978857908	220.0	3	1.11	0.95				
	105	2	24.3216	45.32400000000001	0.0	0.0	1	1.0166743	12.024257214847816	400.0	3	1.05	0.95				
	106	1	0.0	0.0	0.0	0.0	1	1.0167610169250478	12.039761718218543	400.0	3	1.05	0.95				
	107	1	0.0	0.0	0.0	0.0	1	1.0759345991678633	11.79290420408506	220.0	3	1.11	0.95				
	108	1	0.0	0.0	0.0	0.0	1	1.0774683412165957	12.02696896062319	220.0	3	1.11	0.95				
	109	2	0.7200000000000001	16.099200000000003	0.0	0.0	1	1.11	28.726173016042164	220.0	3	1.11	0.95				
	110	2	0.7200000000000001	15.9696	0.0	0.0	1	1.11	28.730227834213924	220.0	3	1.11	0.95				
	111	2	19.0728	12.960000000000003	0.0	0.0	1	1.1066085	14.938898479412607	220.0	4	1.11	0.95				
	112	1	0.0	0.0	0.0	0.0	1	1.1065494628926624	14.930133036395954	220.0	4	1.11	0.95				
	113	1	0.0	0.0	0.0	0.0	1	1.0655903746206665	11.904137698549864	220.0	4	1.11	0.95				
	114	1	0.0	0.0	0.0	0.0	1	1.0769764753346567	13.192731053689851	220.0	4	1.11	0.95				
	115	1	0.0	0.0	0.0	0.0	1	0.9951933904874858	12.86494928442083	400.0	4	1.05	0.95				
	116	1	0.0	0.0	0.0	0.0	1	0.9952485388186043	12.862741521201533	400.0	4	1.05	0.95				
	117	1	0.0	0.0	0.0	0.0	1	1.0830719492808434	10.520444909932992	220.0	4	1.11	0.95				
	118	1	0.0	0.0	0.0	0.0	1	1.0701300173304646	9.13217029424167	220.0	4	1.11	0.95				
	119	1	0.0	0.0	0.0	0.0	1	1.0701300173304646	9.13217029424167	220.0	4	1.11	0.95				
	120	1	0.0	0.0	0.0	0.0	1	1.0554241072732584	8.828814286666551	220.0	4	1.11	0.95				
	121	1	0.0	0.0	0.0	0.0	1	1.0719894079061156	10.603457232317696	220.0	4	1.11	0.95				
	122	1	0.0	0.0	0.0	0.0	1	1.0719894079061156	10.603457232317696	220.0	4	1.11	0.95				
	123	2	3.9600000000000004	5.040000000000001	0.0	0.0	1	1.1096575	14.746321477481821	220.0	4	1.11	0.95				
	124	2	6.328799999999999	12.240000000000002	0.0	0.0	1	1.1096796	14.74881639037704	220.0	4	1.11	0.95				
	125	2	25.704000000000004	13.176000000000002	0.0	0.0	1	1.1062235	11.084477330633277	220.0	4	1.11	0.95				
	126	1	18.201600000000003	11.448	0.0	0.0	1	1.1060774361226764	11.092408211157055	220.0	4	1.11	0.95				
	127	2	18.511200000000002	11.016	0.0	0.0	1	1.0330077	16.114830770226142	400.0	4	1.05	0.95				
	128	1	0.0	0.0	0.0	0.0	1	1.0329562931718288	16.10407636761625	400.0	4	1.05	0.95				
	129	1	0.0	0.0	0.0	0.0	1	1.0523628224191712	9.41114208021305	220.0	4	1.11	0.95				
	130	1	0.0	0.0	0.0	0.0	1	1.0403958004518121	9.680799637972788	220.0	4	1.11	0.95				
	131	2	49.442400000000006	50.4	0.0	0.0	1	1.0993161	16.03541895717738	220.0	4	1.11	0.95				
	132	2	23.760000000000005	32.400000000000006	0.0	0.0	1	1.0994336	16.022728663179606	220.0	4	1.11	0.95				
	133	1	0.0	0.0	0.0	0.0	1	0.9960202912022301	14.991829536256521	400.0	4	1.05	0.95				
	134	1	0.0	0.0	0.0	0.0	1	0.9959992357570137	14.995661728749765	400.0	4	1.05	0.95				
	135	1	0.0	0.0	0.0	0.0	1	1.070077734827675	9.090392199960068	220.0	4	1.11	0.95				
	136	1	0.0	0.0	0.0	0.0	1	1.070077734827675	9.090392199960068	220.0	4	1.11	0.95				
	137	1	0.0	0.0	0.0	0.0	1	1.0153587098125796	13.148390893370163	400.0	4	1.05	0.95				
	138	1	0.0	0.0	0.0	0.0	1	1.0153587098125796	13.148390893370163	400.0	4	1.05	0.95				
	139	2	23.904000000000003	16.272000000000002	0.0	0.0	1	1.11	14.790879539037302	220.0	4	1.11	0.95				
	140	2	21.045600000000004	14.112000000000002	0.0	0.0	1	1.1099933	14.786194802403259	220.0	4	1.11	0.95				
	141	1	0.0	0.0	0.0	0.0	1	1.0552291182596574	7.802559526241713	220.0	4	1.11	0.95				
	142	1	0.0	0.0	0.0	0.0	1	1.0671808168125743	8.996249353139156	220.0	4	1.11	0.95				
	143	1	0.0	0.0	0.0	0.0	1	1.080525002233284	10.046833354976462	220.0	4	1.11	0.95				
	144	1	0.0	0.0	0.0	0.0	1	1.0804581956979487	10.045202580396342	220.0	4	1.11	0.95				
	145	1	0.0	0.0	0.0	0.0	1	0.9802590253476635	11.44058940718523	400.0	4	1.05	0.95				
	146	1	0.0	0.0	0.0	0.0	1	0.9802590253476635	11.44058940718523	400.0	4	1.05	0.95				
	147	1	0.0	0.0	0.0	0.0	1	1.050273724202169	10.724004106095668	220.0	4	1.11	0.95				
	148	1	0.0	0.0	0.0	0.0	1	1.050329575925689	10.727115338134992	220.0	4	1.11	0.95				
	149	1	0.0	0.0	0.0	0.0	1	1.0766736139341264	9.626661619094572	220.0	4	1.11	0.95				
	150	1	0.0	0.0	0.0	0.0	1	1.0691046057752975	12.141466232739925	220.0	4	1.11	0.95				
	151	1	0.0	0.0	0.0	0.0	1	1.0691053962911325	12.138643920386501	220.0	4	1.11	0.95				
	152	1	0.0	0.0	0.0	0.0	1	1.0710697430689333	12.456797796407109	220.0	4	1.11	0.95				
	153	1	0.0	0.0	0.0	0.0	1	1.0710697430689333	12.456797796407109	220.0	4	1.11	0.95				
	154	1	0.0	0.0	0.0	0.0	1	1.0342419468436965	9.633610303673887	220.0	4	1.11	0.95				
	155	1	0.0	0.0	0.0	0.0	1	1.0599162369229431	9.979063404670757	220.0	5	1.11	0.95				
	156	1	0.0	0.0	0.0	0.0	1	1.112394957007715	11.60823948492972	220.0	5	1.11	0.95				
	157	1	0.0	0.0	0.0	0.0	1	1.0268786500281586	13.13690433436602	400.0	5	1.05	0.95				
	158	1	0.0	0.0	0.0	0.0	1	1.0268690176682034	13.134662137346956	400.0	5	1.05	0.95				
	159	1	0.0	0.0	0.0	0.0	1	1.0309417563013672	11.5484643516955	400.0	5	1.05	0.95				
	160	1	0.0	0.0	0.0	0.0	1	1.0309719084448998	11.552907054682324	400.0	5	1.05	0.95				
	161	1	0.0	0.0	0.0	0.0	1	1.0590537035477274	9.059840782119844	220.0	5	1.11	0.95				
	162	1	0.0	0.0	0.0	0.0	1	1.0590556693455462	9.060543517496379	220.0	5	1.11	0.95				
	163	1	0.0	0.0	0.0	0.0	1	1.0953420607688393	9.196917929038243	220.0	5	1.11	0.95				
	164	1	0.0	0.0	0.0	0.0	1	1.0953169345536289	9.195719835080261	220.0	5	1.11	0.95				
	165	1	0.0	0.0	0.0	0.0	1	1.0128653072269895	7.6139416885622175	400.0	5	1.05	0.95				
	166	1	0.0	0.0	0.0	0.0	1	1.072778487917228	10.454557763668173	220.0	5	1.11	0.95				
	167	1	0.0	0.0	0.0	0.0	1	1.0728249202281623	10.455306717473519	220.0	5	1.11	0.95				
	168	1	0.0	0.0	0.0	0.0	1	1.0333623888446106	9.999357224068733	400.0	5	1.05	0.95				
	169	1	0.0	0.0	0.0	0.0	1	1.0333490247249137	9.993192486042718	400.0	5	1.05	0.95				
	170	1	0.0	0.0	0.0	0.0	1	1.0602600924796408	8.495441201447997	220.0	5	1.11	0.95				
	171	1	0.0	0.0	0.0	0.0	1	1.0602938986240789	8.497133311514714	220.0	5	1.11	0.95				
	172	1	0.0	0.0	0.0	0.0	1	1.0671164556709896	8.772585592291648	220.0	5	1.11	0.95				
	173	1	0.0	0.0	0.0	0.0	1	1.0670781350492755	8.773544497513056	220.0	5	1.11	0.95				
	174	1	0.0	0.0	0.0	0.0	1	1.064488581759266	10.232048531711573	220.0	5	1.11	0.95				
	175	1	0.0	0.0	0.0	0.0	1	1.0644679441170093	10.227656102015413	220.0	5	1.11	0.95				
	176	2	0.0	28.800000000000004	0.0	0.0	1	1.0312974	13.999418511351635	400.0	5	1.05	0.95				
	177	2	0.0	28.800000000000004	0.0	0.0	1	1.0314652	13.994706162144485	400.0	5	1.05	0.95				
	178	1	0.0	0.0	0.0	0.0	1	1.0815489017714213	9.974665890104841	220.0	5	1.11	0.95				
	179	1	0.0	0.0	0.0	0.0	1	1.0815854188322545	9.97755898261249	220.0	5	1.11	0.95				
	180	2	244.69200000000004	35.712	0.0	0.0	2	1.0088011	10.052823066802286	400.0	6	1.05	0.95				
	181	2	0.0	0.0	0.0	0.0	3	1.107243	19.801612181874074	220.0	6	1.11	0.95				
	182	2	0.0	0.0	0.0	0.0	5	0.99674384	15.292335320559541	400.0	6	1.05	0.95				
	183	1	108.0	0.0	0.0	0.0	3	1.0514929937721307	12.883524309177268	400.0	6	1.05	0.95				
	184	2	228.48479999999998	36.216	0.0	0.0	2	1.0968373	21.964146035330305	220.0	6	1.11	0.95				
	185	2	260.94960000000003	26.42400000000001	0.0	0.0	2	1.0079864	9.468215136020424	400.0	6	1.05	0.95				
	186	2	23.997600000000002	0.7200000000000001	0.0	0.0	5	1.1085323	10.985477999433792	220.0	6	1.11	0.95				
	187	1	5.1264	1.08	0.0	0.0	1	1.0786749022191533	5.190076649650072	110.0	1	1.12	0.95				
	188	1	5.4936	0.7200000000000001	0.0	0.0	1	1.0667876961907972	4.152723586986529	110.0	1	1.12	0.95				
	189	1	7.034400000000001	6.264	0.0	0.0	1	1.0224095196735008	1.9339741146840572	110.0	1	1.12	0.95				
	190	1	4.4064000000000005	1.08	0.0	0.0	1	1.110656609310761	8.211767982993178	110.0	1	1.12	0.95				
	191	1	4.4064000000000005	1.1520000000000001	0.0	0.0	1	1.0884619342602169	7.77774245389203	110.0	1	1.12	0.95				
	192	2	22.0032	8.64	0.0	0.0	1	1.12	8.374932987666933	110.0	1	1.12	0.95				
	193	1	11.0016	2.16	0.0	0.0	1	1.1187622079007458	8.190193072400147	110.0	1	1.12	0.95				
	194	1	0.0	0.0	0.0	0.0	1	1.11900459613117	8.266372301925681	110.0	1	1.12	0.95				
	195	1	5.860800000000001	1.4400000000000002	0.0	0.0	1	1.0839720945918185	5.458072472906597	110.0	1	1.12	0.95				
	196	2	4.982400000000001	1.08	0.0	0.0	1	1.0192036	5.105014210603885	110.0	1	1.12	0.95				
	197	1	4.982400000000001	1.08	0.0	0.0	1	1.0799004106021033	5.784161952453676	110.0	1	1.12	0.95				
	198	2	8.870400000000002	1.2240000000000002	0.0	0.0	1	1.0753335	4.835775212646228	110.0	1	1.12	0.95				
	199	1	1.0296	0.36000000000000004	0.0	0.0	1	1.1106938875822046	7.454949304978973	110.0	1	1.12	0.95				
	200	1	0.7776000000000002	0.36000000000000004	0.0	0.0	1	1.1050721441037277	3.9063508559015174	110.0	1	1.12	0.95				
...
];
%% generator data
%    bus    Pg    Qg    Qmax    Qmin    Vg    mBase    status    Pmax    Pmin    Pc1    Pc2    Qc1min    Qc1max    Qc2min    Qc2max    ramp_agc    ramp_10    ramp_30    ramp_q    apf
mpc.gen = [
	10	400.0	83.83196467036336	120.0	0.0	1.0	168.0	1	400.0	0.0	0.0	0.0	0.0	0.0	0.0	0.0	0.0	0.0	0.0	0.0	0.0				
	16	720.0	237.37720814983922	440.00000000000006	-40.0	1.0	823.0	1	720.0	0.0	0.0	0.0	0.0	0.0	0.0	0.0	0.0	0.0	0.0	0.0	0.0				
	17	1080.0	263.5843949755774	660.0	-60.0	1.0	1234.0	1	1080.0	0.0	0.0	0.0	0.0	0.0	0.0	0.0	0.0	0.0	0.0	0.0	0.0				
	18	-4527.482120395778	779.9040762001425	1540.0	-140.0	1.0	2879.0	1	2520.0	0.0	0.0	0.0	0.0	0.0	0.0	0.0	0.0	0.0	0.0	0.0	0.0				
	29	70.0	189.89948233793658	240.0	0.0	1.0	511.0	1	400.0	0.0	0.0	0.0	0.0	0.0	0.0	0.0	0.0	0.0	0.0	0.0	0.0				
	30	70.0	104.03343701504961	240.0	0.0	1.0	511.0	1	800.0	0.0	0.0	0.0	0.0	0.0	0.0	0.0	0.0	0.0	0.0	0.0	0.0				
	31	1000.0	-119.25073722076863	350.0	0.0	1.0	420.0	1	1000.0	0.0	0.0	0.0	0.0	0.0	0.0	0.0	0.0	0.0	0.0	0.0	0.0				
	41	200.0	-13.231618807631868	120.0	0.0	1.0	241.0	1	200.0	0.0	0.0	0.0	0.0	0.0	0.0	0.0	0.0	0.0	0.0	0.0	0.0				
	42	70.0	-15.963207636671658	120.0	0.0	1.0	241.0	1	409.99999999999994	0.0	0.0	0.0	0.0	0.0	0.0	0.0	0.0	0.0	0.0	0.0	0.0				
	43	409.99999999999994	-21.27777060220913	240.0	0.0	1.0	482.0	1	409.99999999999994	0.0	0.0	0.0	0.0	0.0	0.0	0.0	0.0	0.0	0.0	0.0	0.0				
	44	409.99999999999994	-38.851815495388024	240.0	0.0	1.0	482.0	1	409.99999999999994	0.0	0.0	0.0	0.0	0.0	0.0	0.0	0.0	0.0	0.0	0.0	0.0				
	45	42.2	-17.362492679330614	21.0	0.0	1.0	49.0	1	42.2	0.0	0.0	0.0	0.0	0.0	0.0	0.0	0.0	0.0	0.0	0.0	0.0				
	63	650.0	80.06387782879663	302.0	0.0	1.0	473.0	1	650.0	0.0	0.0	0.0	0.0	0.0	0.0	0.0	0.0	0.0	0.0	0.0	0.0				
	64	450.0	98.85082480468084	311.0	2.0	1.0	475.0	1	450.0	0.0	0.0	0.0	0.0	0.0	0.0	0.0	0.0	0.0	0.0	0.0	0.0				
	67	750.0	277.3015833044243	449.0	0.0	1.0	864.0	1	750.0	0.0	0.0	0.0	0.0	0.0	0.0	0.0	0.0	0.0	0.0	0.0	0.0				
	83	225.0	-107.95525333280204	190.0	-89.0	1.0	239.0	1	225.0	0.0	0.0	0.0	0.0	0.0	0.0	0.0	0.0	0.0	0.0	0.0	0.0				
	84	225.0	160.7913736635964	190.0	-89.0	1.0	251.0	1	225.0	0.0	0.0	0.0	0.0	0.0	0.0	0.0	0.0	0.0	0.0	0.0	0.0				
	85	120.0	133.01477267452236	125.0	-50.0	1.0	133.0	1	120.0	0.0	0.0	0.0	0.0	0.0	0.0	0.0	0.0	0.0	0.0	0.0	0.0				
	86	120.0	17.76628113117575	125.0	-50.0	1.0	133.0	1	120.0	0.0	0.0	0.0	0.0	0.0	0.0	0.0	0.0	0.0	0.0	0.0	0.0				
	93	120.0	76.90919598349939	90.0	5.0	1.0	123.0	1	120.0	0.0	0.0	0.0	0.0	0.0	0.0	0.0	0.0	0.0	0.0	0.0	0.0				
	95	110.00000000000001	0.6366222276940148	68.0	27.0	1.0	105.0	1	110.00000000000001	0.0	0.0	0.0	0.0	0.0	0.0	0.0	0.0	0.0	0.0	0.0	0.0				
	97	87.6	26.19538642405595	68.0	27.0	1.0	105.0	1	87.6	0.0	0.0	0.0	0.0	0.0	0.0	0.0	0.0	0.0	0.0	0.0	0.0				
	103	160.0	120.52300378747172	177.0	-82.0	1.0	239.0	1	400.0	0.0	0.0	0.0	0.0	0.0	0.0	0.0	0.0	0.0	0.0	0.0	0.0				
	104	225.0	96.14841002752316	379.0	-177.0	1.0	490.0	1	225.0	0.0	0.0	0.0	0.0	0.0	0.0	0.0	0.0	0.0	0.0	0.0	0.0				
	105	430.0	-129.28724929395935	353.0	-165.0	1.0	502.0	1	430.0	0.0	0.0	0.0	0.0	0.0	0.0	0.0	0.0	0.0	0.0	0.0	0.0				
	109	250.0	7.574897418650771	65.0	0.0	1.0	277.0	1	250.0	0.0	0.0	0.0	0.0	0.0	0.0	0.0	0.0	0.0	0.0	0.0	0.0				
	110	250.0	7.810786897082559	65.0	0.0	1.0	280.0	1	250.0	0.0	0.0	0.0	0.0	0.0	0.0	0.0	0.0	0.0	0.0	0.0	0.0				
	111	360.0	44.677489131684034	270.0	0.0	1.0	401.0	1	360.0	0.0	0.0	0.0	0.0	0.0	0.0	0.0	0.0	0.0	0.0	0.0	0.0				
	123	20.0	7.05189647160311	40.0	0.0	1.0	98.0	1	110.00000000000001	0.0	0.0	0.0	0.0	0.0	0.0	0.0	0.0	0.0	0.0	0.0	0.0				
	124	125.0	34.682863095147745	90.0	0.0	1.0	132.0	1	125.0	0.0	0.0	0.0	0.0	0.0	0.0	0.0	0.0	0.0	0.0	0.0	0.0				
	125	70.0	317.7284288787776	360.0	0.0	1.0	654.0	1	860.0	0.0	0.0	0.0	0.0	0.0	0.0	0.0	0.0	0.0	0.0	0.0	0.0				
	127	690.0	-42.17979681023386	360.0	0.0	1.0	540.0	1	690.0	0.0	0.0	0.0	0.0	0.0	0.0	0.0	0.0	0.0	0.0	0.0	0.0				
	131	645.377	4.236234312409799	360.0	0.0	1.0	696.0	1	1060.0	0.0	0.0	0.0	0.0	0.0	0.0	0.0	0.0	0.0	0.0	0.0	0.0				
	132	70.0	245.69631755749103	480.0	0.0	1.0	732.0	1	600.0	0.0	0.0	0.0	0.0	0.0	0.0	0.0	0.0	0.0	0.0	0.0	0.0				
	139	408.6700000000001	103.57517150619238	360.0	0.0	1.0	714.0	1	600.0	0.0	0.0	0.0	0.0	0.0	0.0	0.0	0.0	0.0	0.0	0.0	0.0				
	140	200.0	67.77965676934319	120.0	0.0	1.0	240.0	1	200.0	0.0	0.0	0.0	0.0	0.0	0.0	0.0	0.0	0.0	0.0	0.0	0.0				
	176	600.0	-154.27692888012967	220.00000000000003	-120.0	1.0	430.0	1	600.0	0.0	0.0	0.0	0.0	0.0	0.0	0.0	0.0	0.0	0.0	0.0	0.0				
	177	200.0	164.6635767530219	220.00000000000003	-120.0	1.0	430.0	1	200.0	0.0	0.0	0.0	0.0	0.0	0.0	0.0	0.0	0.0	0.0	0.0	0.0				
	180	0.0	-10.316171302194608	99999.0	-99999.0	1.0	7485.0	1	0.0	0.0	0.0	0.0	0.0	0.0	0.0	0.0	0.0	0.0	0.0	0.0	0.0				
	181	175.0	23.253514973644034	99999.0	-99999.0	1.0	210.0	1	175.0	0.0	0.0	0.0	0.0	0.0	0.0	0.0	0.0	0.0	0.0	0.0	0.0				
	182	307.59	6.026346593818328	99999.0	-99999.0	1.0	13465.0	1	307.59	0.0	0.0	0.0	0.0	0.0	0.0	0.0	0.0	0.0	0.0	0.0	0.0				
	184	0.0	34.187243395658975	99999.0	-99999.0	1.0	8353.0	1	0.0	0.0	0.0	0.0	0.0	0.0	0.0	0.0	0.0	0.0	0.0	0.0	0.0				
	185	0.0	-14.334097957773546	99999.0	-99999.0	1.0	14254.0	1	0.0	0.0	0.0	0.0	0.0	0.0	0.0	0.0	0.0	0.0	0.0	0.0	0.0				
	186	0.0	30.65517594886699	99999.0	-99999.0	1.0	7401.0	1	0.0	0.0	0.0	0.0	0.0	0.0	0.0	0.0	0.0	0.0	0.0	0.0	0.0				
	192	95.0	12.738839249930228	50.0	0.0	1.0	114.0	1	95.0	0.0	0.0	0.0	0.0	0.0	0.0	0.0	0.0	0.0	0.0	0.0	0.0				
	196	0.9000000000000001	-0.6272834716597405	1.0	0.0	1.0	1.0	1	0.9000000000000001	0.0	0.0	0.0	0.0	0.0	0.0	0.0	0.0	0.0	0.0	0.0	0.0				
	198	0.8	-4.813253192380074	1.0	0.0	1.0	1.0	1	0.8	0.0	0.0	0.0	0.0	0.0	0.0	0.0	0.0	0.0	0.0	0.0	0.0				
	205	15.0	-10.859068701571047	10.0	0.0	1.0	18.0	1	15.0	0.0	0.0	0.0	0.0	0.0	0.0	0.0	0.0	0.0	0.0	0.0	0.0				
	213	11.0	-10.296803114680493	8.0	0.0	1.0	13.0	1	11.0	0.0	0.0	0.0	0.0	0.0	0.0	0.0	0.0	0.0	0.0	0.0	0.0				
	264	2.5	-3.908373650499873	2.0	0.0	1.0	3.0	1	2.5	0.0	0.0	0.0	0.0	0.0	0.0	0.0	0.0	0.0	0.0	0.0	0.0				
	269	6.0	0.6783228107540834	5.0	0.0	1.0	7.0	1	6.0	0.0	0.0	0.0	0.0	0.0	0.0	0.0	0.0	0.0	0.0	0.0	0.0				
	277	70.0	18.802288728302273	42.0	0.0	1.0	84.0	1	70.0	0.0	0.0	0.0	0.0	0.0	0.0	0.0	0.0	0.0	0.0	0.0	0.0				
	278	60.0	-16.887800568470222	40.0	0.0	1.0	72.0	1	60.0	0.0	0.0	0.0	0.0	0.0	0.0	0.0	0.0	0.0	0.0	0.0	0.0				
	279	60.0	3.1060443499204022	40.0	0.0	1.0	72.0	1	60.0	0.0	0.0	0.0	0.0	0.0	0.0	0.0	0.0	0.0	0.0	0.0	0.0				
	281	120.0	20.934433987703997	90.0	0.0	1.0	144.0	1	120.0	0.0	0.0	0.0	0.0	0.0	0.0	0.0	0.0	0.0	0.0	0.0	0.0				
	282	40.0	2.953033357214931	40.0	0.0	1.0	48.0	1	40.0	0.0	0.0	0.0	0.0	0.0	0.0	0.0	0.0	0.0	0.0	0.0	0.0				
	289	2.5	-6.925864289710349	3.0	0.0	1.0	3.0	1	2.5	0.0	0.0	0.0	0.0	0.0	0.0	0.0	0.0	0.0	0.0	0.0	0.0				
	294	2.0	-14.445498211119235	1.0	0.0	1.0	2.0	1	2.0	0.0	0.0	0.0	0.0	0.0	0.0	0.0	0.0	0.0	0.0	0.0	0.0				
	314	1.5	-1.0862278891630213	1.0	0.0	1.0	2.0	1	1.5	0.0	0.0	0.0	0.0	0.0	0.0	0.0	0.0	0.0	0.0	0.0	0.0				
	328	44.0	5.161577036435492	21.0	0.0	1.0	53.0	1	44.0	0.0	0.0	0.0	0.0	0.0	0.0	0.0	0.0	0.0	0.0	0.0	0.0				
	329	44.0	10.260948457512448	21.0	0.0	1.0	53.0	1	44.0	0.0	0.0	0.0	0.0	0.0	0.0	0.0	0.0	0.0	0.0	0.0	0.0				
	330	44.0	-13.086669593705036	21.0	0.0	1.0	53.0	1	44.0	0.0	0.0	0.0	0.0	0.0	0.0	0.0	0.0	0.0	0.0	0.0	0.0				
	331	43.0	8.138395861488393	21.0	0.0	1.0	52.0	1	43.0	0.0	0.0	0.0	0.0	0.0	0.0	0.0	0.0	0.0	0.0	0.0	0.0				
	334	1.5	-6.362749222896889	1.0	0.0	1.0	2.0	1	1.5	0.0	0.0	0.0	0.0	0.0	0.0	0.0	0.0	0.0	0.0	0.0	0.0				
	346	200.0	14.974274171879214	120.0	0.0	1.0	180.0	1	200.0	0.0	0.0	0.0	0.0	0.0	0.0	0.0	0.0	0.0	0.0	0.0	0.0				
	347	10.0	0.9394417341476228	15.0	0.0	1.0	12.0	1	10.0	0.0	0.0	0.0	0.0	0.0	0.0	0.0	0.0	0.0	0.0	0.0	0.0				
	359	1.5	-2.4465236952808636	1.0	0.0	1.0	2.0	1	1.5	0.0	0.0	0.0	0.0	0.0	0.0	0.0	0.0	0.0	0.0	0.0	0.0				
	365	5.1	-10.329689120392622	3.0	0.0	1.0	6.0	1	5.1	0.0	0.0	0.0	0.0	0.0	0.0	0.0	0.0	0.0	0.0	0.0	0.0				
	382	8.0	-3.383059288625983	5.0	0.0	1.0	10.0	1	8.0	0.0	0.0	0.0	0.0	0.0	0.0	0.0	0.0	0.0	0.0	0.0	0.0				
	383	8.0	-16.398458410286906	5.0	0.0	1.0	10.0	1	8.0	0.0	0.0	0.0	0.0	0.0	0.0	0.0	0.0	0.0	0.0	0.0	0.0				
	385	6.0	-12.627580956378374	4.0	0.0	1.0	7.0	1	6.0	0.0	0.0	0.0	0.0	0.0	0.0	0.0	0.0	0.0	0.0	0.0	0.0				
	390	4.5	-1.766602513817874	3.0	0.0	1.0	5.0	1	4.5	0.0	0.0	0.0	0.0	0.0	0.0	0.0	0.0	0.0	0.0	0.0	0.0				
	395	10.0	-0.7490106736452351	8.0	0.0	1.0	12.0	1	10.0	0.0	0.0	0.0	0.0	0.0	0.0	0.0	0.0	0.0	0.0	0.0	0.0				
	404	3.0	-4.908642149793447	3.0	0.0	1.0	4.0	1	3.0	0.0	0.0	0.0	0.0	0.0	0.0	0.0	0.0	0.0	0.0	0.0	0.0				
	426	3.2	-13.530616225194844	2.0	0.0	1.0	4.0	1	3.2	0.0	0.0	0.0	0.0	0.0	0.0	0.0	0.0	0.0	0.0	0.0	0.0				
	444	1.0	-13.723672223457308	1.0	0.0	1.0	1.0	1	1.0	0.0	0.0	0.0	0.0	0.0	0.0	0.0	0.0	0.0	0.0	0.0	0.0				
	451	4.5	-22.14870498723422	3.0	0.0	1.0	5.0	1	4.5	0.0	0.0	0.0	0.0	0.0	0.0	0.0	0.0	0.0	0.0	0.0	0.0				
	482	1.0	28.38628136023571	1.0	0.0	1.0	1.0	1	1.0	0.0	0.0	0.0	0.0	0.0	0.0	0.0	0.0	0.0	0.0	0.0	0.0				
	492	2.0	-4.371679787212905	1.0	0.0	1.0	2.0	1	2.0	0.0	0.0	0.0	0.0	0.0	0.0	0.0	0.0	0.0	0.0	0.0	0.0				
	493	234.0	78.08112265341546	130.0	0.0	1.0	281.0	1	234.0	0.0	0.0	0.0	0.0	0.0	0.0	0.0	0.0	0.0	0.0	0.0	0.0				
	494	234.0	84.6107143092882	130.0	0.0	1.0	281.0	1	234.0	0.0	0.0	0.0	0.0	0.0	0.0	0.0	0.0	0.0	0.0	0.0	0.0				
	514	114.99999999999999	46.59081019527673	90.0	0.0	1.0	138.0	1	114.99999999999999	0.0	0.0	0.0	0.0	0.0	0.0	0.0	0.0	0.0	0.0	0.0	0.0				
	515	114.99999999999999	28.804333426778054	90.0	0.0	1.0	138.0	1	114.99999999999999	0.0	0.0	0.0	0.0	0.0	0.0	0.0	0.0	0.0	0.0	0.0	0.0				
	525	6.0	-1.2537820331180969	4.0	0.0	1.0	7.0	1	6.0	0.0	0.0	0.0	0.0	0.0	0.0	0.0	0.0	0.0	0.0	0.0	0.0				
	536	6.0	-7.259794849679019	6.0	0.0	1.0	7.0	1	6.0	0.0	0.0	0.0	0.0	0.0	0.0	0.0	0.0	0.0	0.0	0.0	0.0				
	537	3.5000000000000004	-3.623100522165906	3.0	0.0	1.0	4.0	1	3.5000000000000004	0.0	0.0	0.0	0.0	0.0	0.0	0.0	0.0	0.0	0.0	0.0	0.0				
	556	2.7	-4.903937437514694	1.0	0.0	1.0	3.0	1	2.7	0.0	0.0	0.0	0.0	0.0	0.0	0.0	0.0	0.0	0.0	0.0	0.0				
	580	1.6	-1.7545382805485683	1.0	0.0	1.0	2.0	1	1.6	0.0	0.0	0.0	0.0	0.0	0.0	0.0	0.0	0.0	0.0	0.0	0.0				
	584	2.7	-0.131720840182586	2.0	0.0	1.0	3.0	1	2.7	0.0	0.0	0.0	0.0	0.0	0.0	0.0	0.0	0.0	0.0	0.0	0.0				
	585	4.0	-2.024766059552754	2.0	0.0	1.0	5.0	1	4.0	0.0	0.0	0.0	0.0	0.0	0.0	0.0	0.0	0.0	0.0	0.0	0.0				
	607	0.8	-2.352197544467553	0.0	0.0	1.0	1.0	1	0.8	0.0	0.0	0.0	0.0	0.0	0.0	0.0	0.0	0.0	0.0	0.0	0.0				
	612	152.955	54.67550028998991	120.0	0.0	1.0	256.0	1	200.0	0.0	0.0	0.0	0.0	0.0	0.0	0.0	0.0	0.0	0.0	0.0	0.0				
	613	200.0	60.69027681151579	120.0	0.0	1.0	256.0	1	200.0	0.0	0.0	0.0	0.0	0.0	0.0	0.0	0.0	0.0	0.0	0.0	0.0				
	615	1.4	-14.89597766128202	1.0	0.0	1.0	2.0	1	1.4	0.0	0.0	0.0	0.0	0.0	0.0	0.0	0.0	0.0	0.0	0.0	0.0				
	623	7.6	-0.925590055208339	5.0	0.0	1.0	9.0	1	7.6	0.0	0.0	0.0	0.0	0.0	0.0	0.0	0.0	0.0	0.0	0.0	0.0				
	639	9.6	-12.996655465693038	4.0	0.0	1.0	12.0	1	9.6	0.0	0.0	0.0	0.0	0.0	0.0	0.0	0.0	0.0	0.0	0.0	0.0				
	651	4.7	-10.257836387844996	2.0	0.0	1.0	6.0	1	4.7	0.0	0.0	0.0	0.0	0.0	0.0	0.0	0.0	0.0	0.0	0.0	0.0				
	654	1.4	-9.559737906219077	1.0	0.0	1.0	2.0	1	1.4	0.0	0.0	0.0	0.0	0.0	0.0	0.0	0.0	0.0	0.0	0.0	0.0				
	664	6.2	-4.984825880676952	6.0	0.0	1.0	7.0	1	6.2	0.0	0.0	0.0	0.0	0.0	0.0	0.0	0.0	0.0	0.0	0.0	0.0				
	670	2.7	-5.244509633189494	2.0	0.0	1.0	3.0	1	2.7	0.0	0.0	0.0	0.0	0.0	0.0	0.0	0.0	0.0	0.0	0.0	0.0				
	674	1.0	-6.27913243792467	0.0	0.0	1.0	1.0	1	1.0	0.0	0.0	0.0	0.0	0.0	0.0	0.0	0.0	0.0	0.0	0.0	0.0				
	688	70.0	9.093328345888791	120.0	0.0	1.0	242.0	1	202.0	0.0	0.0	0.0	0.0	0.0	0.0	0.0	0.0	0.0	0.0	0.0	0.0				
	692	1.4	-8.394510442017973	1.0	0.0	1.0	2.0	1	1.4	0.0	0.0	0.0	0.0	0.0	0.0	0.0	0.0	0.0	0.0	0.0	0.0				
	699	3.8	-11.209762046150635	2.0	0.0	1.0	5.0	1	3.8	0.0	0.0	0.0	0.0	0.0	0.0	0.0	0.0	0.0	0.0	0.0	0.0				
	712	1.2	-15.0047189888937	1.0	0.0	1.0	1.0	1	1.2	0.0	0.0	0.0	0.0	0.0	0.0	0.0	0.0	0.0	0.0	0.0	0.0				
	730	6.9	-5.710701672141146	3.0	0.0	1.0	8.0	1	6.9	0.0	0.0	0.0	0.0	0.0	0.0	0.0	0.0	0.0	0.0	0.0	0.0				
	732	1.1	-7.322819402497209	1.0	0.0	1.0	1.0	1	1.1	0.0	0.0	0.0	0.0	0.0	0.0	0.0	0.0	0.0	0.0	0.0	0.0				
	735	4.1	-5.567075671734877	2.0	0.0	1.0	5.0	1	4.1	0.0	0.0	0.0	0.0	0.0	0.0	0.0	0.0	0.0	0.0	0.0	0.0				
	740	4.0	-3.1128442509592245	1.0	0.0	1.0	5.0	1	4.0	0.0	0.0	0.0	0.0	0.0	0.0	0.0	0.0	0.0	0.0	0.0	0.0				
	744	134.0	-10.765071348187782	60.0	0.0	1.0	161.0	1	134.0	0.0	0.0	0.0	0.0	0.0	0.0	0.0	0.0	0.0	0.0	0.0	0.0				
	754	80.0	-15.163517898042924	30.0	0.0	1.0	54.0	1	80.0	0.0	0.0	0.0	0.0	0.0	0.0	0.0	0.0	0.0	0.0	0.0	0.0				
	755	85.0	-10.172687411177941	80.0	0.0	1.0	110.0	1	250.0	0.0	0.0	0.0	0.0	0.0	0.0	0.0	0.0	0.0	0.0	0.0	0.0				
	760	3.1	-8.157545472276361	2.0	0.0	1.0	4.0	1	3.1	0.0	0.0	0.0	0.0	0.0	0.0	0.0	0.0	0.0	0.0	0.0	0.0				
	766	2.1	-2.3435527171338757	1.0	0.0	1.0	3.0	1	2.1	0.0	0.0	0.0	0.0	0.0	0.0	0.0	0.0	0.0	0.0	0.0	0.0				
	784	0.7	-25.40074867572087	0.0	0.0	1.0	1.0	1	0.7	0.0	0.0	0.0	0.0	0.0	0.0	0.0	0.0	0.0	0.0	0.0	0.0				
	790	49.8	22.770140660373762	35.0	35.0	1.0	60.0	1	49.8	0.0	0.0	0.0	0.0	0.0	0.0	0.0	0.0	0.0	0.0	0.0	0.0				
	795	1.8900000000000001	-4.663814317294423	1.0	1.0	1.0	2.0	1	1.8900000000000001	0.0	0.0	0.0	0.0	0.0	0.0	0.0	0.0	0.0	0.0	0.0	0.0				
	798	2.99	-0.2613423671329779	3.0	3.0	1.0	4.0	1	2.99	0.0	0.0	0.0	0.0	0.0	0.0	0.0	0.0	0.0	0.0	0.0	0.0				
	814	44.92	8.304527724783181	42.0	0.0	1.0	54.0	1	44.92	0.0	0.0	0.0	0.0	0.0	0.0	0.0	0.0	0.0	0.0	0.0	0.0				
	834	55.00000000000001	65.10748138431228	83.0	0.0	1.0	110.0	1	55.00000000000001	0.0	0.0	0.0	0.0	0.0	0.0	0.0	0.0	0.0	0.0	0.0	0.0				
	878	2.99	-9.358449162860591	0.0	0.0	1.0	4.0	1	2.99	0.0	0.0	0.0	0.0	0.0	0.0	0.0	0.0	0.0	0.0	0.0	0.0				
	884	2.49	-6.620159088364844	0.0	0.0	1.0	3.0	1	2.49	0.0	0.0	0.0	0.0	0.0	0.0	0.0	0.0	0.0	0.0	0.0	0.0				
	892	31.869999999999997	17.686057830494263	42.0	6.0	1.0	38.0	1	31.869999999999997	0.0	0.0	0.0	0.0	0.0	0.0	0.0	0.0	0.0	0.0	0.0	0.0				
	895	8.96	1.6409456498109547	7.000000000000001	7.000000000000001	1.0	11.0	1	8.96	0.0	0.0	0.0	0.0	0.0	0.0	0.0	0.0	0.0	0.0	0.0	0.0				
	901	3.6799999999999997	-7.271295904033516	2.0	2.0	1.0	4.0	1	3.6799999999999997	0.0	0.0	0.0	0.0	0.0	0.0	0.0	0.0	0.0	0.0	0.0	0.0				
	910	4.58	-1.5047446267186897	3.0	3.0	1.0	6.0	1	4.58	0.0	0.0	0.0	0.0	0.0	0.0	0.0	0.0	0.0	0.0	0.0	0.0				
	911	370.0	38.69043057384746	224.00000000000003	0.0	1.0	415.0	1	370.0	0.0	0.0	0.0	0.0	0.0	0.0	0.0	0.0	0.0	0.0	0.0	0.0				
	912	370.0	49.32149187813662	224.00000000000003	0.0	1.0	415.0	1	370.0	0.0	0.0	0.0	0.0	0.0	0.0	0.0	0.0	0.0	0.0	0.0	0.0				
	914	15.93	2.472549799273909	10.0	10.0	1.0	19.0	1	15.93	0.0	0.0	0.0	0.0	0.0	0.0	0.0	0.0	0.0	0.0	0.0	0.0				
	917	2.09	-3.3873374344451377	0.0	0.0	1.0	3.0	1	2.09	0.0	0.0	0.0	0.0	0.0	0.0	0.0	0.0	0.0	0.0	0.0	0.0				
	919	21.91	2.257269049371494	12.0	12.0	1.0	26.0	1	21.91	0.0	0.0	0.0	0.0	0.0	0.0	0.0	0.0	0.0	0.0	0.0	0.0				
	920	1.9900000000000002	-4.987109659063506	0.0	0.0	1.0	2.0	1	1.9900000000000002	0.0	0.0	0.0	0.0	0.0	0.0	0.0	0.0	0.0	0.0	0.0	0.0				
	929	63.73	21.804579166972303	50.0	28.999999999999996	1.0	77.0	1	63.73	0.0	0.0	0.0	0.0	0.0	0.0	0.0	0.0	0.0	0.0	0.0	0.0				
	959	2.49	-7.273824456693427	1.0	1.0	1.0	3.0	1	2.49	0.0	0.0	0.0	0.0	0.0	0.0	0.0	0.0	0.0	0.0	0.0	0.0				
	968	0.7	-8.700644806612532	0.0	0.0	1.0	1.0	1	0.7	0.0	0.0	0.0	0.0	0.0	0.0	0.0	0.0	0.0	0.0	0.0	0.0				
	993	3.9800000000000004	-3.2108709433705447	1.0	1.0	1.0	5.0	1	3.9800000000000004	0.0	0.0	0.0	0.0	0.0	0.0	0.0	0.0	0.0	0.0	0.0	0.0				
	994	1.9900000000000002	0.11404308811056932	1.0	1.0	1.0	2.0	1	1.9900000000000002	0.0	0.0	0.0	0.0	0.0	0.0	0.0	0.0	0.0	0.0	0.0	0.0				
	995	20.0	15.393616934604957	38.0	0.0	1.0	60.0	1	100.0	0.0	0.0	0.0	0.0	0.0	0.0	0.0	0.0	0.0	0.0	0.0	0.0				
	996	20.0	16.95449414881215	38.0	0.0	1.0	60.0	1	50.0	0.0	0.0	0.0	0.0	0.0	0.0	0.0	0.0	0.0	0.0	0.0	0.0				
	997	20.0	22.81756768325302	38.0	0.0	1.0	60.0	1	50.0	0.0	0.0	0.0	0.0	0.0	0.0	0.0	0.0	0.0	0.0	0.0	0.0				
	1004	4.28	14.127265247214762	3.0	3.0	1.0	5.0	1	4.28	0.0	0.0	0.0	0.0	0.0	0.0	0.0	0.0	0.0	0.0	0.0	0.0				
	1024	0.1	-5.239491041256793	0.0	0.0	1.0	0.0	1	0.1	0.0	0.0	0.0	0.0	0.0	0.0	0.0	0.0	0.0	0.0	0.0	0.0				
	1027	24.9	6.088583585313893	13.0	13.0	1.0	30.0	1	24.9	0.0	0.0	0.0	0.0	0.0	0.0	0.0	0.0	0.0	0.0	0.0	0.0				
	1028	2.99	2.1820119466065684	3.0	3.0	1.0	4.0	1	2.99	0.0	0.0	0.0	0.0	0.0	0.0	0.0	0.0	0.0	0.0	0.0	0.0				
	1029	24.9	7.878122215710088	14.000000000000002	14.000000000000002	1.0	30.0	1	24.9	0.0	0.0	0.0	0.0	0.0	0.0	0.0	0.0	0.0	0.0	0.0	0.0				
	1053	59.760000000000005	13.355974729434866	53.0	0.0	1.0	72.0	1	59.760000000000005	0.0	0.0	0.0	0.0	0.0	0.0	0.0	0.0	0.0	0.0	0.0	0.0				
	1054	29.880000000000003	15.147873912874587	31.0	0.0	1.0	36.0	1	29.880000000000003	0.0	0.0	0.0	0.0	0.0	0.0	0.0	0.0	0.0	0.0	0.0	0.0				
	1105	7.969999999999999	5.532197345514382	10.0	10.0	1.0	10.0	1	7.969999999999999	0.0	0.0	0.0	0.0	0.0	0.0	0.0	0.0	0.0	0.0	0.0	0.0				
	1106	22.91	0.5105514729217709	13.0	13.0	1.0	28.0	1	22.91	0.0	0.0	0.0	0.0	0.0	0.0	0.0	0.0	0.0	0.0	0.0	0.0				
	1107	10.56	-7.396339398833164	3.0	3.0	1.0	13.0	1	10.56	0.0	0.0	0.0	0.0	0.0	0.0	0.0	0.0	0.0	0.0	0.0	0.0				
	1138	44.82	33.816531859480314	41.0	0.0	1.0	54.0	1	44.82	0.0	0.0	0.0	0.0	0.0	0.0	0.0	0.0	0.0	0.0	0.0	0.0				
	1140	229.99999999999997	39.55917994711044	199.0	-87.0	1.0	252.0	1	229.99999999999997	0.0	0.0	0.0	0.0	0.0	0.0	0.0	0.0	0.0	0.0	0.0	0.0				
	1141	94.917	33.9107424613769	190.0	-89.0	1.0	251.0	1	225.0	0.0	0.0	0.0	0.0	0.0	0.0	0.0	0.0	0.0	0.0	0.0	0.0				
	1175	37.84	2.8671487597977423	20.0	20.0	1.0	45.0	1	37.84	0.0	0.0	0.0	0.0	0.0	0.0	0.0	0.0	0.0	0.0	0.0	0.0				
	1182	40.0	-2.5185368074637227	125.0	-50.0	1.0	133.0	1	120.0	0.0	0.0	0.0	0.0	0.0	0.0	0.0	0.0	0.0	0.0	0.0	0.0				
	1183	120.0	2.2041420418087587	125.0	-50.0	1.0	133.0	1	120.0	0.0	0.0	0.0	0.0	0.0	0.0	0.0	0.0	0.0	0.0	0.0	0.0				
	1184	120.0	43.339489080294264	125.0	-50.0	1.0	133.0	1	120.0	0.0	0.0	0.0	0.0	0.0	0.0	0.0	0.0	0.0	0.0	0.0	0.0				
	1191	106.56000000000002	12.419927881228169	129.0	-47.0	1.0	128.0	1	106.56000000000002	0.0	0.0	0.0	0.0	0.0	0.0	0.0	0.0	0.0	0.0	0.0	0.0				
	1192	250.0	55.223292184497744	125.0	-50.0	1.0	123.0	1	250.0	0.0	0.0	0.0	0.0	0.0	0.0	0.0	0.0	0.0	0.0	0.0	0.0				
	1201	99.59	-15.552593340056259	90.0	0.0	1.0	120.0	1	99.59	0.0	0.0	0.0	0.0	0.0	0.0	0.0	0.0	0.0	0.0	0.0	0.0				
	1202	99.59	54.934932731050246	90.0	0.0	1.0	120.0	1	99.59	0.0	0.0	0.0	0.0	0.0	0.0	0.0	0.0	0.0	0.0	0.0	0.0				
	1203	99.59	33.072604148668844	90.0	0.0	1.0	120.0	1	99.59	0.0	0.0	0.0	0.0	0.0	0.0	0.0	0.0	0.0	0.0	0.0	0.0				
	1232	51.790000000000006	30.863623628997576	41.0	0.0	1.0	62.0	1	51.790000000000006	0.0	0.0	0.0	0.0	0.0	0.0	0.0	0.0	0.0	0.0	0.0	0.0				
	1233	14.940000000000001	26.001754006430243	41.0	0.0	1.0	18.0	1	14.940000000000001	0.0	0.0	0.0	0.0	0.0	0.0	0.0	0.0	0.0	0.0	0.0	0.0				
	1244	18.92	16.743728063994702	20.0	20.0	1.0	23.0	1	18.92	0.0	0.0	0.0	0.0	0.0	0.0	0.0	0.0	0.0	0.0	0.0	0.0				
	1247	15.93	2.7260585202938055	12.0	12.0	1.0	19.0	1	15.93	0.0	0.0	0.0	0.0	0.0	0.0	0.0	0.0	0.0	0.0	0.0	0.0				
	1250	197.19	36.49530064365523	151.0	0.0	1.0	237.0	1	197.19	0.0	0.0	0.0	0.0	0.0	0.0	0.0	0.0	0.0	0.0	0.0	0.0				
	1268	0.5	-7.777685145067678	0.0	0.0	1.0	1.0	1	0.5	0.0	0.0	0.0	0.0	0.0	0.0	0.0	0.0	0.0	0.0	0.0	0.0				
	1316	1.0	-5.507065757910093	0.0	0.0	1.0	1.0	1	1.0	0.0	0.0	0.0	0.0	0.0	0.0	0.0	0.0	0.0	0.0	0.0	0.0				
	1325	1.39	-2.574469080585519	0.0	0.0	1.0	2.0	1	1.39	0.0	0.0	0.0	0.0	0.0	0.0	0.0	0.0	0.0	0.0	0.0	0.0				
	1349	1.49	-6.122276186969159	0.0	0.0	1.0	2.0	1	1.49	0.0	0.0	0.0	0.0	0.0	0.0	0.0	0.0	0.0	0.0	0.0	0.0				
	1356	1.0	-5.9718939122046475	2.0	2.0	1.0	1.0	1	1.0	0.0	0.0	0.0	0.0	0.0	0.0	0.0	0.0	0.0	0.0	0.0	0.0				
	1359	0.8	-9.104492891984432	1.0	1.0	1.0	1.0	1	0.8	0.0	0.0	0.0	0.0	0.0	0.0	0.0	0.0	0.0	0.0	0.0	0.0				
	1393	12.75	-7.143757168628239	11.0	0.0	1.0	15.0	1	12.75	0.0	0.0	0.0	0.0	0.0	0.0	0.0	0.0	0.0	0.0	0.0	0.0				
	1403	4.28	-4.838265194985631	1.0	1.0	1.0	5.0	1	4.28	0.0	0.0	0.0	0.0	0.0	0.0	0.0	0.0	0.0	0.0	0.0	0.0				
	1416	371.0	14.168970135189122	180.0	10.0	1.0	246.0	1	371.0	0.0	0.0	0.0	0.0	0.0	0.0	0.0	0.0	0.0	0.0	0.0	0.0				
	1417	120.0	15.790862283088106	120.0	5.0	1.0	123.0	1	120.0	0.0	0.0	0.0	0.0	0.0	0.0	0.0	0.0	0.0	0.0	0.0	0.0				
	1418	20.0	6.024066375032336	90.0	5.0	1.0	123.0	1	20.0	0.0	0.0	0.0	0.0	0.0	0.0	0.0	0.0	0.0	0.0	0.0	0.0				
	1426	495.0	44.639997938144596	68.0	27.0	1.0	106.0	1	495.0	0.0	0.0	0.0	0.0	0.0	0.0	0.0	0.0	0.0	0.0	0.0	0.0				
	1429	0.2	-8.166999196874698	0.0	0.0	1.0	0.0	1	0.2	0.0	0.0	0.0	0.0	0.0	0.0	0.0	0.0	0.0	0.0	0.0	0.0				
	1469	0.6	-7.56888035153373	0.0	0.0	1.0	1.0	1	0.6	0.0	0.0	0.0	0.0	0.0	0.0	0.0	0.0	0.0	0.0	0.0	0.0				
	1475	2.09	-11.732860007014809	2.0	2.0	1.0	3.0	1	2.09	0.0	0.0	0.0	0.0	0.0	0.0	0.0	0.0	0.0	0.0	0.0	0.0				
	1504	31.17	56.813615230509484	2.0	2.0	1.0	37.0	1	31.17	0.0	0.0	0.0	0.0	0.0	0.0	0.0	0.0	0.0	0.0	0.0	0.0				
	1505	48.8	30.212967439496385	4.0	4.0	1.0	59.0	1	48.8	0.0	0.0	0.0	0.0	0.0	0.0	0.0	0.0	0.0	0.0	0.0	0.0				
	1514	2.29	-5.186041266562637	1.0	1.0	1.0	3.0	1	2.29	0.0	0.0	0.0	0.0	0.0	0.0	0.0	0.0	0.0	0.0	0.0	0.0				
	1534	0.3	-0.8202675499548596	0.0	0.0	1.0	0.0	1	0.3	0.0	0.0	0.0	0.0	0.0	0.0	0.0	0.0	0.0	0.0	0.0	0.0				
	1536	160.0	46.23267718324075	190.0	-89.0	1.0	251.0	1	225.0	0.0	0.0	0.0	0.0	0.0	0.0	0.0	0.0	0.0	0.0	0.0	0.0				
	1537	225.0	52.10725755500319	202.99999999999997	-95.0	1.0	255.0	1	225.0	0.0	0.0	0.0	0.0	0.0	0.0	0.0	0.0	0.0	0.0	0.0	0.0				
	1538	215.0	47.55116699738121	190.0	-89.0	1.0	255.0	1	215.0	0.0	0.0	0.0	0.0	0.0	0.0	0.0	0.0	0.0	0.0	0.0	0.0				
	1542	8.96	1.1173014113896051	3.0	3.0	1.0	11.0	1	8.96	0.0	0.0	0.0	0.0	0.0	0.0	0.0	0.0	0.0	0.0	0.0	0.0				
	1543	1.2	-9.841964360096595	0.0	0.0	1.0	1.0	1	1.2	0.0	0.0	0.0	0.0	0.0	0.0	0.0	0.0	0.0	0.0	0.0	0.0				
	1550	1.79	-2.0538404833513737	1.0	1.0	1.0	2.0	1	1.79	0.0	0.0	0.0	0.0	0.0	0.0	0.0	0.0	0.0	0.0	0.0	0.0				
	1566	54.77000000000001	14.584179676055484	47.0	20.0	1.0	66.0	1	54.77000000000001	0.0	0.0	0.0	0.0	0.0	0.0	0.0	0.0	0.0	0.0	0.0	0.0				
	1587	63.739999999999995	12.557988293210437	27.0	27.0	1.0	77.0	1	63.739999999999995	0.0	0.0	0.0	0.0	0.0	0.0	0.0	0.0	0.0	0.0	0.0	0.0				
	1600	17.43	-8.775999365551277	3.0	3.0	1.0	21.0	1	17.43	0.0	0.0	0.0	0.0	0.0	0.0	0.0	0.0	0.0	0.0	0.0	0.0				
	1602	120.0	2.947577177554337	90.0	0.0	1.0	144.0	1	120.0	0.0	0.0	0.0	0.0	0.0	0.0	0.0	0.0	0.0	0.0	0.0	0.0				
	1603	120.0	52.357800625500204	90.0	0.0	1.0	144.0	1	120.0	0.0	0.0	0.0	0.0	0.0	0.0	0.0	0.0	0.0	0.0	0.0	0.0				
	1609	0.3	-6.0083439387788085	0.0	0.0	1.0	0.0	1	0.3	0.0	0.0	0.0	0.0	0.0	0.0	0.0	0.0	0.0	0.0	0.0	0.0				
	1617	2.0	-7.891261189398042	0.0	0.0	1.0	2.0	1	2.0	0.0	0.0	0.0	0.0	0.0	0.0	0.0	0.0	0.0	0.0	0.0	0.0				
	1620	1.6	-8.99183141410866	0.0	0.0	1.0	2.0	1	1.6	0.0	0.0	0.0	0.0	0.0	0.0	0.0	0.0	0.0	0.0	0.0	0.0				
...
];
%% branch data
%    f_bus    t_bus    r    x    b    rateA    rateB    rateC    ratio    angle    status    angmin    angmax
mpc.branch = [
	16	1	0.00155	0.01169	0.0182	160.0	160.0	160.0	0	0	1	-60.0001403060998	60.0001403060998								
	355	1	0.00157	0.06612	0.0	160.0	160.0	160.0	1.0099	0.0	1	-60.0001403060998	60.0001403060998								
	17	2	0.00155	0.01169	0.0182	160.0	160.0	160.0	0	0	1	-60.0001403060998	60.0001403060998								
	354	2	0.00157	0.06612	0.0	160.0	160.0	160.0	1.022	0.0	1	-60.0001403060998	60.0001403060998								
	10	3	0.01068	0.07895	0.1226	274.0	274.0	274.0	0	0	1	-60.0001403060998	60.0001403060998								
	219	3	0.00165	0.06736	0.0	160.0	160.0	160.0	1.027	0.0	1	-60.0001403060998	60.0001403060998								
	220	3	0.00165	0.06736	0.0	160.0	160.0	160.0	0.9955	0.0	1	-60.0001403060998	60.0001403060998								
	7	4	0.01674	0.09711	0.14423	377.0	377.0	377.0	0	0	1	-60.0001403060998	60.0001403060998								
	11	4	0.00293	0.01599	0.02478	335.0	335.0	335.0	0	0	1	-60.0001403060998	60.0001403060998								
	14	4	0.00442	0.03223	0.04985	463.99999999999994	463.99999999999994	463.99999999999994	0	0	1	-60.0001403060998	60.0001403060998								
	16	4	0.00888	0.06665	0.08896	377.0	377.0	377.0	0	0	1	-60.0001403060998	60.0001403060998								
	22	4	0.00783	0.043	0.04962	350.0	350.0	350.0	0	0	1	-60.0001403060998	60.0001403060998								
	245	4	0.00165	0.06901	0.0	160.0	160.0	160.0	1.0594	0.0	1	-60.0001403060998	60.0001403060998								
	246	4	0.00165	0.06901	0.0	160.0	160.0	160.0	1.0448	0.0	1	-60.0001403060998	60.0001403060998								
	5	6	0.00064	0.0305	0.0	400.0	400.0	400.0	1.0435	-0.6	1	-60.0001403060998	60.0001403060998								
	7	5	0.00525	0.03988	0.06195	381.0	381.0	381.0	0	0	1	-60.0001403060998	60.0001403060998								
	10	5	0.01459	0.11219	0.16553	381.0	381.0	381.0	0	0	1	-60.0001403060998	60.0001403060998								
	309	5	0.00165	0.0686	0.0	160.0	160.0	160.0	1.0646	0.0	1	-60.0001403060998	60.0001403060998								
	309	5	0.00165	0.0686	0.0	160.0	160.0	160.0	1.0523	0.0	1	-60.0001403060998	60.0001403060998								
	6	8	0.00112	0.01329	0.34125	1316.0	1316.0	1316.0	0	0	1	-60.0001403060998	60.0001403060998								
	6	9	0.00299	0.03675	0.9184	1427.0	1427.0	1427.0	0	0	1	-60.0001403060998	60.0001403060998								
	15	6	0.00298	0.03417	0.93504	1427.0	1427.0	1427.0	0	0	1	-60.0001403060998	60.0001403060998								
	31	6	0.0015	0.01506	0.4032	1385.0	1385.0	1385.0	0	0	1	-60.0001403060998	60.0001403060998								
	310	6	0.0015	0.06188	0.0	250.0	250.0	250.0	1.0613	0.0	1	-60.0001403060998	60.0001403060998								
	12	7	0.01211	0.08742	0.14017	381.0	381.0	381.0	0	0	1	-60.0001403060998	60.0001403060998								
	13	7	0.00205	0.01326	0.02243	335.0	335.0	335.0	0	0	1	-60.0001403060998	60.0001403060998								
	19	7	0.0057	0.0407	0.06021	323.0	323.0	323.0	0	0	1	-60.0001403060998	60.0001403060998								
	21	7	0.00093	0.00651	0.01113	160.0	160.0	160.0	0	0	1	-60.0001403060998	60.0001403060998								
	29	7	0.01269	0.07498	0.1302	362.0	362.0	362.0	0	0	1	-60.0001403060998	60.0001403060998								
	321	7	0.00041	0.03368	0.0	250.0	250.0	250.0	1.0323	0.0	1	-60.0001403060998	60.0001403060998								
	322	7	0.00165	0.06775	0.0	160.0	160.0	160.0	1.0569	0.0	1	-60.0001403060998	60.0001403060998								
	8	18	0.00336	0.03977	1.02163	1316.0	1316.0	1316.0	0	0	1	-60.0001403060998	60.0001403060998								
	332	9	0.00087	0.05244	-0.02144	330.0	330.0	330.0	1.0781	0.0	1	-60.0001403060998	60.0001403060998								
	171	10	0.01409	0.10413	0.15972	463.99999999999994	463.99999999999994	463.99999999999994	0	0	1	-60.0001403060998	60.0001403060998								
	346	10	0.00124	0.06839	0.0	160.0	160.0	160.0	1.0054	0.0	1	-60.0001403060998	60.0001403060998								
	347	10	0.00124	0.06839	0.0	160.0	160.0	160.0	1.024	0.0	1	-60.0001403060998	60.0001403060998								
	16	11	0.0057	0.03952	0.07553	463.99999999999994	463.99999999999994	463.99999999999994	0	0	1	-60.0001403060998	60.0001403060998								
	17	11	0.0057	0.03952	0.07553	463.99999999999994	463.99999999999994	463.99999999999994	0	0	1	-60.0001403060998	60.0001403060998								
	111	11	0.01068	0.06196	0.09496	394.0	394.0	394.0	0	0	1	-60.0001403060998	60.0001403060998								
	352	11	0.00165	0.06901	0.0	160.0	160.0	160.0	1.0412	0.0	1	-60.0001403060998	60.0001403060998								
	353	11	0.00165	0.06901	0.0	160.0	160.0	160.0	1.0559	0.0	1	-60.0001403060998	60.0001403060998								
	140	12	0.01465	0.10589	0.17085	463.99999999999994	463.99999999999994	463.99999999999994	0	0	1	-60.0001403060998	60.0001403060998								
	359	12	0.00155	0.06612	0.0	160.0	160.0	160.0	1.0395	0.0	1	-60.0001403060998	60.0001403060998								
	360	12	0.00157	0.06612	0.0	160.0	160.0	160.0	1.059	0.0	1	-60.0001403060998	60.0001403060998								
	29	13	0.01345	0.08114	0.14113	339.0	339.0	339.0	0	0	1	-60.0001403060998	60.0001403060998								
	365	13	0.00165	0.06901	0.0	160.0	160.0	160.0	1.0312	0.0	1	-60.0001403060998	60.0001403060998								
	366	13	0.00165	0.06901	0.0	160.0	160.0	160.0	0.9872	0.0	1	-60.0001403060998	60.0001403060998								
	17	14	0.00384	0.02853	0.04588	463.99999999999994	463.99999999999994	463.99999999999994	0	0	1	-60.0001403060998	60.0001403060998								
	367	14	0.00157	0.06798	0.0	160.0	160.0	160.0	1.0664	0.0	1	-60.0001403060998	60.0001403060998								
	368	14	0.00165	0.06901	0.0	160.0	160.0	160.0	1.0777	0.0	1	-60.0001403060998	60.0001403060998								
	18	15	0.00358	0.04262	1.0944	1662.0	1662.0	1662.0	0	0	1	-60.0001403060998	60.0001403060998								
	15	165	0.00207	0.02474	0.664	831.0	831.0	831.0	0	0	1	-60.0001403060998	60.0001403060998								
	374	15	0.0015	0.06188	0.0	250.0	250.0	250.0	1.1502	0.0	1	-60.0001403060998	60.0001403060998								
	16	18	0.00036	0.02519	0.0	500.0	500.0	500.0	1.0605	0.0	1	-60.0001403060998	60.0001403060998								
	16	73	0.00909	0.0624	0.11142	463.99999999999994	463.99999999999994	463.99999999999994	0	0	1	-60.0001403060998	60.0001403060998								
	17	18	0.00036	0.02519	0.0	500.0	500.0	500.0	1.0607	0.0	1	-60.0001403060998	60.0001403060998								
	17	74	0.00868	0.06405	0.09699	463.99999999999994	463.99999999999994	463.99999999999994	0	0	1	-60.0001403060998	60.0001403060998								
	20	18	0.00063	0.00749	0.39226	1427.0	1427.0	1427.0	0	0	1	-60.0001403060998	60.0001403060998								
	75	18	0.00219	0.02369	0.59584	1434.0	1434.0	1434.0	0	0	1	-60.0001403060998	60.0001403060998								
	18	76	0.00137	0.01625	0.41184	1662.0	1662.0	1662.0	0	0	1	-60.0001403060998	60.0001403060998								
	18	101	0.00231	0.02769	0.70144	1662.0	1662.0	1662.0	0	0	1	-60.0001403060998	60.0001403060998								
	124	19	0.01696	0.12366	0.19699	463.99999999999994	463.99999999999994	463.99999999999994	0	0	1	-60.0001403060998	60.0001403060998								
	425	19	0.00165	0.06818	0.0	160.0	160.0	160.0	1.0241	0.0	1	-60.0001403060998	60.0001403060998								
	67	20	0.00331	0.03425	0.85888	831.0	831.0	831.0	0	0	1	-60.0001403060998	60.0001403060998								
	447	20	0.00137	0.06119	-0.01504	250.0	250.0	250.0	1.0796	0.0	1	-60.0001403060998	60.0001403060998								
	448	20	0.00137	0.06119	-0.01504	250.0	250.0	250.0	1.0923	0.0	1	-60.0001403060998	60.0001403060998								
	502	21	0.00165	0.07107	0.0	160.0	160.0	160.0	0.9922	0.0	1	-60.0001403060998	60.0001403060998								
	112	22	0.00465	0.02618	0.02962	362.0	362.0	362.0	0	0	1	-60.0001403060998	60.0001403060998								
	526	22	0.00165	0.06901	0.0	160.0	160.0	160.0	1.0685	0.0	1	-60.0001403060998	60.0001403060998								
	527	22	0.00165	0.06901	0.0	160.0	160.0	160.0	1.0424	0.0	1	-60.0001403060998	60.0001403060998								
	37	23	0.01163	0.07031	0.1058	394.0	394.0	394.0	0	0	1	-60.0001403060998	60.0001403060998								
	46	23	0.00837	0.04868	0.07348	457.0	457.0	457.0	0	0	1	-60.0001403060998	60.0001403060998								
	53	23	0.01122	0.06558	0.09835	274.0	274.0	274.0	0	0	1	-60.0001403060998	60.0001403060998								
	540	23	0.0014	0.0668	0.0	160.0	160.0	160.0	1.0182	0.0	1	-60.0001403060998	60.0001403060998								
	54	24	0.00769	0.05727	0.08789	160.0	160.0	160.0	0	0	1	-60.0001403060998	60.0001403060998								
	545	24	0.00151	0.06715	0.0	160.0	160.0	160.0	1.0161	0.0	1	-60.0001403060998	60.0001403060998								
	41	25	0.00556	0.04145	0.0636	274.0	274.0	274.0	0	0	1	-60.0001403060998	60.0001403060998								
	53	25	0.00452	0.03368	0.05169	463.99999999999994	463.99999999999994	463.99999999999994	0	0	1	-60.0001403060998	60.0001403060998								
	54	25	0.00019	0.0014	0.00213	463.99999999999994	463.99999999999994	463.99999999999994	0	0	1	-60.0001403060998	60.0001403060998								
	564	25	0.00157	0.07808	0.0	160.0	160.0	160.0	1.0276	0.0	1	-60.0001403060998	60.0001403060998								
	38	26	0.00698	0.05196	0.07967	160.0	160.0	160.0	0	0	1	-60.0001403060998	60.0001403060998								
	568	26	0.00149	0.06616	0.0	160.0	160.0	160.0	1.013	0.0	1	-60.0001403060998	60.0001403060998								
	28	27	0.0	0.0001	0.0	876.0	876.0	876.0	0	0	1	-60.0001403060998	60.0001403060998								
	33	27	0.0024	0.01494	0.02253	160.0	160.0	160.0	0	0	1	-60.0001403060998	60.0001403060998								
	48	27	0.01213	0.06215	0.09371	362.0	362.0	362.0	0	0	1	-60.0001403060998	60.0001403060998								
	27	74	0.01116	0.07231	0.10367	304.0	304.0	304.0	0	0	1	-60.0001403060998	60.0001403060998								
	47	28	0.00248	0.01798	0.02759	463.99999999999994	463.99999999999994	463.99999999999994	0	0	1	-60.0001403060998	60.0001403060998								
	28	88	0.01488	0.08161	0.1148	362.0	362.0	362.0	0	0	1	-60.0001403060998	60.0001403060998								
	30	29	0.0	0.0001	0.0	876.0	876.0	876.0	0	0	1	-60.0001403060998	60.0001403060998								
	29	32	0.00034	0.02097	0.0	500.0	500.0	500.0	1.0619	0.0	1	-60.0001403060998	60.0001403060998								
	45	29	0.00545	0.04021	0.06699	463.99999999999994	463.99999999999994	463.99999999999994	0	0	1	-60.0001403060998	60.0001403060998								
	48	29	0.00574	0.04283	0.06573	463.99999999999994	463.99999999999994	463.99999999999994	0	0	1	-60.0001403060998	60.0001403060998								
	613	29	0.00157	0.06775	0.0	160.0	160.0	160.0	1.0016	0.0	1	-60.0001403060998	60.0001403060998								
	46	30	0.00545	0.04021	0.06699	463.99999999999994	463.99999999999994	463.99999999999994	0	0	1	-60.0001403060998	60.0001403060998								
	49	30	0.00707	0.04541	0.06931	362.0	362.0	362.0	0	0	1	-60.0001403060998	60.0001403060998								
	32	31	0.0	0.0001	0.0	1593.0	1593.0	1593.0	0	0	1	-60.0001403060998	60.0001403060998								
	39	31	0.00176	0.02144	0.57344	1385.0	1385.0	1385.0	0	0	1	-60.0001403060998	60.0001403060998								
	36	32	0.00167	0.0189	0.54176	498.00000000000006	498.00000000000006	498.00000000000006	0	0	1	-60.0001403060998	60.0001403060998								
	615	33	0.00163	0.06946	0.0	160.0	160.0	160.0	1.0291	0.0	1	-60.0001403060998	60.0001403060998								
	35	34	0.0	0.0001	0.0	1593.0	1593.0	1593.0	0	0	1	-60.0001403060998	60.0001403060998								
	34	51	0.00113	0.01406	0.37488	1385.0	1385.0	1385.0	0	0	1	-60.0001403060998	60.0001403060998								
	183	34	0.00188	0.02287	0.6432	1385.0	1385.0	1385.0	0	0	1	-60.0001403060998	60.0001403060998								
	183	35	0.00188	0.02287	0.6432	1385.0	1385.0	1385.0	0	0	1	-60.0001403060998	60.0001403060998								
	617	35	0.00135	0.06052	0.0	250.0	250.0	250.0	1.0654	0.0	1	-60.0001403060998	60.0001403060998								
	644	36	0.00135	0.06052	0.0	250.0	250.0	250.0	1.1003	0.0	1	-60.0001403060998	60.0001403060998								
	645	36	0.00153	0.06156	0.0	250.0	250.0	250.0	1.0971	0.0	1	-60.0001403060998	60.0001403060998								
	38	37	0.0	0.0001	0.0	876.0	876.0	876.0	0	0	1	-60.0001403060998	60.0001403060998								
	663	37	0.00157	0.06616	0.0	160.0	160.0	160.0	1.0009	0.0	1	-60.0001403060998	60.0001403060998								
	55	38	0.00316	0.02076	0.03146	394.0	394.0	394.0	0	0	1	-60.0001403060998	60.0001403060998								
	40	39	0.0	0.0001	0.0	1593.0	1593.0	1593.0	0	0	1	-60.0001403060998	60.0001403060998								
	682	39	0.00139	0.05984	0.0	250.0	250.0	250.0	1.0603	0.0	1	-60.0001403060998	60.0001403060998								
	44	40	0.00109	0.01277	0.34176	1385.0	1385.0	1385.0	0	0	1	-60.0001403060998	60.0001403060998								
	679	40	0.0014	0.06235	0.0	250.0	250.0	250.0	1.0996	0.0	1	-60.0001403060998	60.0001403060998								
	42	41	0.0	0.0001	0.0	876.0	876.0	876.0	0	0	1	-60.0001403060998	60.0001403060998								
	41	43	0.00081	0.03	0.0	400.0	400.0	400.0	1.0377	0.0	1	-60.0001403060998	60.0001403060998								
	80	41	0.00372	0.0438	0.10096	609.0	609.0	609.0	0	0	1	-60.0001403060998	60.0001403060998								
	47	42	0.00882	0.06564	0.10066	274.0	274.0	274.0	0	0	1	-60.0001403060998	60.0001403060998								
	54	42	0.00355	0.02643	0.04056	392.0	392.0	392.0	0	0	1	-60.0001403060998	60.0001403060998								
	689	42	0.00145	0.06839	0.0	160.0	160.0	160.0	1.0037	0.0	1	-60.0001403060998	60.0001403060998								
	44	43	0.0	0.0001	0.0	1593.0	1593.0	1593.0	0	0	1	-60.0001403060998	60.0001403060998								
	99	43	0.00169	0.01994	0.50624	831.0	831.0	831.0	0	0	1	-60.0001403060998	60.0001403060998								
	50	44	0.00094	0.01097	0.29376	1662.0	1662.0	1662.0	0	0	1	-60.0001403060998	60.0001403060998								
	46	45	0.0	0.0001	0.0	876.0	876.0	876.0	0	0	1	-60.0001403060998	60.0001403060998								
	49	45	0.01048	0.06097	0.09205	394.0	394.0	394.0	0	0	1	-60.0001403060998	60.0001403060998								
	706	47	0.00157	0.06775	0.0	160.0	160.0	160.0	1.0249	0.0	1	-60.0001403060998	60.0001403060998								
	707	47	0.00165	0.06775	0.0	160.0	160.0	160.0	1.0201	0.0	1	-60.0001403060998	60.0001403060998								
	49	48	0.0	0.0001	0.0	876.0	876.0	876.0	0	0	1	-60.0001403060998	60.0001403060998								
	717	48	0.00163	0.06783	0.0	160.0	160.0	160.0	1.023	0.0	1	-60.0001403060998	60.0001403060998								
	716	49	0.00143	0.06831	0.0	160.0	160.0	160.0	1.0238	0.0	1	-60.0001403060998	60.0001403060998								
	51	50	0.0	0.0001	0.0	1593.0	1593.0	1593.0	0	0	1	-60.0001403060998	60.0001403060998								
	98	50	0.0015	0.01788	0.4512	831.0	831.0	831.0	0	0	1	-60.0001403060998	60.0001403060998								
	100	50	0.00469	0.05544	1.4048	831.0	831.0	831.0	0	0	1	-60.0001403060998	60.0001403060998								
	726	50	0.00139	0.0608	0.0	250.0	250.0	250.0	1.0815	0.0	1	-60.0001403060998	60.0001403060998								
	727	51	0.0014	0.06235	0.0	250.0	250.0	250.0	1.0819	0.0	1	-60.0001403060998	60.0001403060998								
	53	52	0.00151	0.00878	0.01316	160.0	160.0	160.0	0	0	1	-60.0001403060998	60.0001403060998								
	754	52	0.00163	0.06754	0.0	160.0	160.0	160.0	1.0317	0.0	1	-60.0001403060998	60.0001403060998								
	181	55	0.01434	0.08353	0.12603	394.0	394.0	394.0	0	0	1	-60.0001403060998	60.0001403060998								
	778	55	0.00161	0.06762	0.0	160.0	160.0	160.0	0.9979	0.0	1	-60.0001403060998	60.0001403060998								
	74	56	0.00207	0.01281	0.02052	394.0	394.0	394.0	0	0	1	-60.0001403060998	60.0001403060998								
	796	56	0.00207	0.06777	-0.003	160.0	160.0	160.0	1.0389	0.0	1	-60.0001403060998	60.0001403060998								
	81	57	0.00083	0.00496	0.00726	137.0	137.0	137.0	0	0	1	-60.0001403060998	60.0001403060998								
	80	58	0.00083	0.00496	0.00726	137.0	137.0	137.0	0	0	1	-60.0001403060998	60.0001403060998								
	63	59	0.00207	0.01405	0.02265	362.0	362.0	362.0	0	0	1	-60.0001403060998	60.0001403060998								
	82	59	0.01116	0.07045	0.11606	362.0	362.0	362.0	0	0	1	-60.0001403060998	60.0001403060998								
	821	59	0.00165	0.06798	-0.00319	160.0	160.0	160.0	1.0178	0.0	1	-60.0001403060998	60.0001403060998								
	60	85	0.01095	0.0593	0.08441	362.0	362.0	362.0	0	0	1	-60.0001403060998	60.0001403060998								
	104	60	0.00599	0.04091	0.07212	463.99999999999994	463.99999999999994	463.99999999999994	0	0	1	-60.0001403060998	60.0001403060998								
	834	60	0.00145	0.06921	-0.00532	160.0	160.0	160.0	0.9936	0.0	1	-60.0001403060998	60.0001403060998								
	836	60	0.00372	0.12583	-0.00242	100.0	100.0	100.0	1.0154	0.0	1	-60.0001403060998	60.0001403060998								
	62	61	0.0	0.0001	0.0	876.0	876.0	876.0	0	0	1	-60.0001403060998	60.0001403060998								
	64	61	0.00517	0.03843	0.05876	463.99999999999994	463.99999999999994	463.99999999999994	0	0	1	-60.0001403060998	60.0001403060998								
	109	61	0.00083	0.0062	0.00958	463.99999999999994	463.99999999999994	463.99999999999994	0	0	1	-60.0001403060998	60.0001403060998								
	184	61	0.01219	0.07066	0.11742	274.0	274.0	274.0	0	0	1	-60.0001403060998	60.0001403060998								
	82	62	0.00165	0.01095	0.01955	463.99999999999994	463.99999999999994	463.99999999999994	0	0	1	-60.0001403060998	60.0001403060998								
	110	62	0.00083	0.0062	0.00949	463.99999999999994	463.99999999999994	463.99999999999994	0	0	1	-60.0001403060998	60.0001403060998								
	71	63	0.00475	0.03079	0.04879	362.0	362.0	362.0	0	0	1	-60.0001403060998	60.0001403060998								
	91	63	0.00455	0.02769	0.04608	394.0	394.0	394.0	0	0	1	-60.0001403060998	60.0001403060998								
	94	63	0.00186	0.0126	0.02236	463.99999999999994	463.99999999999994	463.99999999999994	0	0	1	-60.0001403060998	60.0001403060998								
	96	63	0.00826	0.04236	0.06118	362.0	362.0	362.0	0	0	1	-60.0001403060998	60.0001403060998								
	64	69	0.00434	0.02975	0.05266	463.99999999999994	463.99999999999994	463.99999999999994	0	0	1	-60.0001403060998	60.0001403060998								
	79	64	0.00351	0.02438	0.03998	362.0	362.0	362.0	0	0	1	-60.0001403060998	60.0001403060998								
	93	64	0.00186	0.0126	0.02236	463.99999999999994	463.99999999999994	463.99999999999994	0	0	1	-60.0001403060998	60.0001403060998								
	95	64	0.00826	0.04236	0.06118	362.0	362.0	362.0	0	0	1	-60.0001403060998	60.0001403060998								
	90	65	0.00785	0.04132	0.06389	394.0	394.0	394.0	0	0	1	-60.0001403060998	60.0001403060998								
	65	91	0.00227	0.01446	0.02585	394.0	394.0	394.0	0	0	1	-60.0001403060998	60.0001403060998								
	66	67	0.00031	0.02094	0.0	500.0	500.0	500.0	1.0616	0.0	1	-60.0001403060998	60.0001403060998								
	66	68	0.00248	0.02355	0.04763	457.0	457.0	457.0	0	0	1	-60.0001403060998	60.0001403060998								
	152	66	0.01033	0.08285	0.13959	463.99999999999994	463.99999999999994	463.99999999999994	0	0	1	-60.0001403060998	60.0001403060998								
	138	67	0.00194	0.02056	0.51584	866.0	866.0	866.0	0	0	1	-60.0001403060998	60.0001403060998								
	911	67	0.00156	0.06269	-0.00992	250.0	250.0	250.0	1.0656	0.0	1	-60.0001403060998	60.0001403060998								
	912	67	0.00156	0.06269	-0.00992	250.0	250.0	250.0	1.066	0.0	1	-60.0001403060998	60.0001403060998								
	68	78	0.00579	0.04153	0.06621	463.99999999999994	463.99999999999994	463.99999999999994	0	0	1	-60.0001403060998	60.0001403060998								
	978	68	0.00165	0.06694	-0.0031	160.0	160.0	160.0	1.0083	0.0	1	-60.0001403060998	60.0001403060998								
	979	68	0.00145	0.06653	-0.00319	160.0	160.0	160.0	1.006	0.0	1	-60.0001403060998	60.0001403060998								
	83	69	0.00145	0.00992	0.01762	463.99999999999994	463.99999999999994	463.99999999999994	0	0	1	-60.0001403060998	60.0001403060998								
	995	69	0.00145	0.0655	-0.00252	160.0	160.0	160.0	1.0107	0.0	1	-60.0001403060998	60.0001403060998								
	996	69	0.00145	0.07045	-0.00252	160.0	160.0	160.0	1.0025	0.0	1	-60.0001403060998	60.0001403060998								
	70	73	0.00145	0.00971	0.01626	457.0	457.0	457.0	0	0	1	-60.0001403060998	60.0001403060998								
	107	70	0.00062	0.00413	0.00697	457.0	457.0	457.0	0	0	1	-60.0001403060998	60.0001403060998								
	72	71	0.0	0.0001	0.0	876.0	876.0	876.0	0	0	1	-60.0001403060998	60.0001403060998								
	86	71	0.00165	0.00971	0.01423	362.0	362.0	362.0	0	0	1	-60.0001403060998	60.0001403060998								
	1059	71	0.00145	0.06983	-0.00232	160.0	160.0	160.0	1.0193	0.0	1	-60.0001403060998	60.0001403060998								
	1060	71	0.00165	0.06777	-0.00281	160.0	160.0	160.0	0.9558	0.0	1	-60.0001403060998	60.0001403060998								
	73	75	0.00075	0.02444	-0.00832	330.0	330.0	330.0	1.0544	1.7	1	-60.0001403060998	60.0001403060998								
	87	73	0.00393	0.02851	0.04501	463.99999999999994	463.99999999999994	463.99999999999994	0	0	1	-60.0001403060998	60.0001403060998								
	74	76	0.00075	0.02469	-0.008	330.0	330.0	330.0	1.0606	1.7	1	-60.0001403060998	60.0001403060998								
...